Adsorption isotherm of Nitrogen on CuBTC
DOI: 10.1021/cm5042293
Article source: Figure 6a- 298 K experiment
Adsorbate Nitrogen: InChIKey IJGRMHOSHXDMSA-UHFFFAOYSA-N
Kind: experiment
Temperature: 298 K
Tabular data in the source: 0
pressure (bar)	uptake (mmol/g)
0.011336	0.0079
0.01973	0.01025
0.032061	0.0125
0.043472	0.01475
0.054209	0.01734
0.06272	0.02038
0.07181	0.02254
0.0809	0.02375
0.093874	0.02888
0.108914	0.03563
0.124284	0.04015
0.145273	0.04582
0.168081	0.05506
0.195268	0.06397
0.227	0.07443
0.262946	0.08576
0.307487	0.09987
0.356243	0.11707
0.41417	0.13502
0.480114	0.15682
0.518373	0.16923
0.558203	0.18232
0.603488	0.19575
0.648607	0.21012
0.699676	0.22787
0.752645	0.24035
0.812141	0.25594
0.87288	0.28097
0.942954	0.30567
0.978738	0.3251
1.01394	0.34703
